453
 SCF done       -569.654847326235          0.000039817039
O           2.06059394816050    0.24910758448762   -6.47359821797034
O           0.64834241456261    1.42911925777519   -5.15628820354653
O          -1.46022319941611    0.96202333231630   -4.31987638073694
O          -4.69186849414686    0.48779894399100   -5.81998578000708
O          -3.07966654146757    3.68777462891153   -4.46958731823514
O          -1.16776707048830    2.22092889730829   -7.05112389626494
O           0.09220215782572    1.93156599170786   -2.40367356220691
O           5.05960280064299    1.45662607210524   -6.67346457894465
O           3.50748888291888    0.64174390339483   -3.26523995860146
O           1.67574561659547   -1.90681765842372   -3.01052442001566
O          -0.55867911476557   -1.51012418465690   -4.77858212334990
O           6.49050503920359    3.11683787799514   -6.46306204418860
O           4.53858363791859    1.44216584162598   -1.51974599550728
O           0.93404273402205   -3.42398954925358   -1.59739412037220
O          -2.33425341544717   -2.76849896786162   -5.07641737816655
O           1.26597627216739    1.02630072416856   -0.79398026267560
O          -4.44962307562054    4.96942474417624   -3.30786643159458
O           0.02403992254313    1.67904753650242   -8.82293971929723
O          -6.81099067362963    0.00067204217258   -6.14754279021995
C           3.09315172480574    0.51928136386219   -5.53204598948681
C           2.97704343994101   -0.29230716040275   -4.19944006852180
C           1.54490298340515   -0.73234211610738   -3.78726171716782
C           0.74987089992901   -1.05287820093878   -5.06259955529468
C           0.77717444528376    0.23518899619082   -5.92283180393766
C          -0.56002624215592    1.96277605408993   -4.69506943222816
C          -0.18105657278986    2.83472850585645   -3.45863280138145
C          -1.31830676855129    2.80927771680427   -5.77589421478069
C          -2.80273356742326    1.26470896928439   -4.65268572933300
C          -2.78720331656611    2.63328956431263   -5.36754336265135
C          -3.34222671131552    0.14411795161672   -5.54541094877915
C           4.42761392909990    0.25638971805403   -6.26478340785987
C           5.91144044835345    2.20643587842657   -5.93635328891586
C           6.05503301324945    1.87857246517363   -4.47247227106344
C           7.32474255274078    2.48367187814948   -3.86718266833717
C           7.33586971440339    2.20902173387104   -2.36363828187918
C           8.65904166584441    2.55572497836155   -1.68234627244348
C           8.58310429082744    2.13807709209537   -0.21179152125410
C           9.85620860820451    2.46773240974674    0.56643630535167
C           9.70461794809245    2.02307098777105    2.02554006643753
C          10.88012546509184    2.41613220779496    2.87576392914223
C          10.80635049097841    2.87404630339630    4.12082028691116
C           9.52793581987817    3.07825861793459    4.89023265978375
C           8.92757505409149    1.73795455628190    5.34742948478896
C           7.52133617933326    1.92174377622033    5.92454851751278
C           6.87147246938062    0.56864833976316    6.22924406103764
C           5.45358519010423    0.73451481462806    6.78418415198241
C           4.79008608289293   -0.62679415457520    7.00991808150150
C           4.00667363910164    0.48342105739990   -2.01414836289849
C           3.84486862597501   -0.83286611938236   -1.31332360366821
C           4.81401457492330   -0.92233766171973   -0.13030944253199
C           4.46049070108505   -2.07692569540951    0.80838158234199
C           5.44171855583947   -2.13404190971899    1.98361319990250
C           5.01356098438727   -3.17390678199466    3.02282755837337
C           6.02371731516295   -3.25583575821690    4.16999070373743
C           5.53185094848833   -4.19724677710008    5.28104388394900
C           6.52031707073047   -4.23961337876541    6.41282025619234
C           7.40346045956593   -5.20281727754791    6.64719661414463
C           7.55929815824923   -6.47070993998310    5.85300999088428
C           6.73378748661179   -7.60624717637350    6.48143288221708
C           6.87422239616040   -8.90351117206128    5.68071682703270
C           6.03678353561534  -10.02991816404126    6.29429082735514
C           6.16910554497960  -11.32533494379039    5.48759324045479
C           5.32758778058792  -12.45100907727723    6.09682041799021
C           0.75827827876197   -2.34710081080495   -2.08874750315928
C          -0.39284204843608   -1.44553723613398   -1.72324664713051
C          -1.70921673000440   -2.23496560770016   -1.72117828649189
C          -2.89604105130969   -1.27661357536089   -1.58505256747902
C          -4.21179397486014   -1.93795077879230   -2.00447626892451
C          -5.34129008607618   -0.90677131275430   -2.08842383640551
C          -6.63445023516741   -1.52668651951918   -2.62321820892084
C          -7.69676261712320   -0.45067731215633   -2.89679506355559
C          -8.86443488832643   -1.03861203459961   -3.63583779563366
C         -10.07436684537391   -1.27274495305416   -3.14438208416517
C         -10.55038755999904   -0.92785796687199   -1.75915566434277
C         -11.08508755034219    0.51334682982943   -1.74492419007812
C         -11.82641098287629    0.84897161367343   -0.44974092007687
C         -12.44257956680954    2.24938835654158   -0.52504816216781
C         -13.22529684372935    2.59330369008034    0.74508415230506
C         -13.86964276035435    3.97884772974282    0.63813414595430
C          -1.18878744684684   -2.54228430178692   -5.37218158191785
C          -0.46225399368388   -3.35806561907801   -6.41793613698344
C          -0.36570987268122   -2.57995028759691   -7.75252190350631
C           1.05898250087664   -2.58052570919945   -8.31370867051752
C           1.25742569630788   -1.54355222000590   -9.42467644557135
C           2.75014500906683   -1.42667876480526   -9.74066185784205
C           3.06715782389365   -0.36928840877688  -10.80025727683331
C           4.59047505940659   -0.22068375117759  -10.92396004603635
C           5.00273176369871    0.64944138725513  -12.07789851787392
C           5.87677018337717    1.64783569898567  -12.02376969782446
C           6.58400561824807    2.12531223480533  -10.78428036521263
C           7.72514979382225    1.18849443715473  -10.35367837969269
C           8.36263888547654    1.68295029135741   -9.05104114446541
C           9.22922825124653    0.60484493013379   -8.39358625064796
C           9.83824895691640    1.11744030261700   -7.08492055050930
C          10.54521254195669    0.00397582150735   -6.30685292525395
C           1.08222334581623    1.98938608586567   -1.49108922712199
C           1.92173684020366    3.24243153419835   -1.42938686299277
C           2.67314441667638    3.33362114765606   -0.09470718555479
C           3.87162601780099    4.27914501062938   -0.19209173931727
C           4.69307779581188    4.26294873161516    1.10060167862888
C           5.91439216860484    5.17848660672009    0.98245587947359
C           6.72991998956984    5.21479783733230    2.27807541701775
C           7.94607597466344    6.13686111351296    2.12069288273206
C           8.71137892121702    6.29273463750847    3.40565302066407
C          10.03312581366247    6.24410900982447    3.53543558334739
C          11.00360614288192    6.00321086656407    2.41084687754007
C          11.18273434057041    7.25494201612145    1.53321477468114
C          11.82820101175597    6.89359513259237    0.19374780728702
C          11.93096602375304    8.10344439338847   -0.73965190814482
C          12.39463452725118    7.67460291171726   -2.13462886265655
C          12.50957015401491    8.86356356774559   -3.09213249215406
C          -4.33862605863038    4.08394055283507   -4.10131595346534
C          -5.49075375319982    3.35167523871053   -4.74092173474839
C          -6.83937105345073    3.87685590894287   -4.24372694285967
C          -7.98203782290220    3.12248407250298   -4.92815079790093
C          -9.34543810249384    3.51627468098603   -4.35406797422551
C         -10.46185044726796    2.68092144808451   -4.98709417628793
C         -11.84400655425114    3.10649220863724   -4.48400299324904
C         -12.93071465045223    2.17504095587904   -5.04129798194205
C         -14.29361464058515    2.53582221443433   -4.51992713353391
C         -15.10219945066243    1.74368334271414   -3.82408552766951
C         -14.79695810097574    0.32516343200810   -3.42021453172257
C         -14.91593460236919   -0.65329313801826   -4.60253712554900
C         -14.22124394891399   -1.98125328458895   -4.28753497343782
C         -14.16542175395972   -2.89150017976367   -5.51777121896864
C         -13.34350780793993   -4.15410772286160   -5.24033634567286
C         -13.22161974844667   -5.02364659322219   -6.49528663525973
C          -0.09337544808633    2.39685176492362   -7.87221277713973
C           0.86118271994170    3.50993377769864   -7.51760620012449
C           2.16755308065290    3.39555428725977   -8.30673000804900
C           3.10270084418720    4.54801186426162   -7.93623398933269
C           4.44973202265590    4.43013246192527   -8.64984708137793
C           5.40109017136581    5.54931093649472   -8.21835258881265
C           6.78900388824367    5.34277228888772   -8.82453800903017
C           7.78681318688438    6.41317268189996   -8.35347361348684
C           9.17391195451273    6.01644713187052   -8.77233302607305
C          10.04797754375651    5.36580322295832   -8.01353918279779
C           9.84315899788988    4.96931719277240   -6.57399443661581
C          11.18665481927941    4.72741625995961   -5.87963978436229
C          11.01704833838927    4.34743282819426   -4.40686181527530
C          12.38036901903835    4.14027848697667   -3.74030484577664
C          12.24267047921561    3.70319479353696   -2.27958559254755
C          13.59619935301379    3.71714646530957   -1.56348042459099
C          -5.68113134224519   -0.39653711921893   -6.08239568885830
C          -5.27063128057724   -1.83919980199212   -6.26485825756210
C          -6.47362006204231   -2.70958263451919   -6.63595284380543
C          -6.17415221922175   -4.19518788053394   -6.42665392766978
C          -7.41679642570715   -5.04856912962662   -6.69813665176057
C          -7.16973804252158   -6.51932511062129   -6.34972098829916
C          -8.42601220327410   -7.36102722065246   -6.58638525077522
C          -8.22502508771208   -8.81274411228596   -6.12074899636917
C          -9.45921418330354   -9.63413654740920   -6.37950238527484
C         -10.49945285194553   -9.75626776055452   -5.56179580196758
C         -10.63910873728429   -9.13297741554472   -4.20139164044631
C         -10.46973148210191  -10.19163139765421   -3.09984441100123
C         -10.63231494214236   -9.57245782141512   -1.70911313613491
C         -10.46388898360455  -10.62369123103003   -0.60784314698159
C         -10.62828185857532  -10.00403413672940    0.78330930820408
C         -10.46318841243637  -11.05487978718520    1.88550803232430
C         -10.62887547631778  -10.43541591432413    3.27673262393752
C         -10.46607414258085  -11.48147182415514    4.37830834019672
C           5.45792532563660  -13.74562862430743    5.28829138669685
C           4.61854592266096  -14.87015073246558    5.89256607008012
C           3.37469484397942   -0.48820033847552    7.57671588478717
C           2.72138912619684   -1.85574872645585    7.76995657310321
C          11.14584328502301    0.53613620364202   -5.00234656836271
C          11.81862497098987   -0.56804323308283   -4.18981868877367
C         -14.66284892623407    4.32644624646898    1.90153755577276
C         -15.30913335693010    5.70666801343267    1.79407508226002
C         -12.38033806556955   -6.27578194742708   -6.23181355377392
C         -12.23014292747598   -7.12434697098246   -7.49304352282620
C          12.92810522127367    8.40476412374883   -4.49246283714267
C          13.04133523708805    9.58053275412088   -5.46081044893491
C          13.46571038297801    3.26927537779707   -0.10510685255777
C          14.79689435218644    3.36539006566592    0.63735341091116
H           3.04675297753826    1.58402339212300   -5.25732964995529
H           3.60402596132009   -1.19655978391173   -4.23423268156827
H           1.07148180763029    0.07235761528401   -3.22025632531110
H           1.30177448448518   -1.82098053341961   -5.61824765785172
H           0.05049766864150    0.19116366108787   -6.74283638658357
H          -1.02871716004461    3.47196555058617   -3.18141999955913
H           0.68695324141984    3.45152715973701   -3.71440919138419
H          -1.02768399443961    3.86606619331283   -5.76929636259173
H          -3.39777172252352    1.32088960998577   -3.73088587464754
H          -3.44644854649902    2.65265557202198   -6.24355607341717
H          -3.26734245197169   -0.79953872720889   -5.00010970133074
H          -2.76209493320762    0.08124767421961   -6.47492404212633
H           4.21036547666348   -0.28920768617652   -7.18994690741213
H           5.10347069164417   -0.35411627191588   -5.65375803751368
H           6.04545195317281    0.79886203488399   -4.31153537949161
H           5.17439359502150    2.28884593995520   -3.96800720943679
H           7.35350380727831    3.55843630652493   -4.06597065666902
H           8.20067690427203    2.03294438322943   -4.34409272601382
H           7.12451268604391    1.14690509080984   -2.19656936477581
H           6.52967890933376    2.77831686869636   -1.89197594290219
H           8.85453616419966    3.63020692135417   -1.75935987412993
H           9.48237276093268    2.02773811236306   -2.17533338473394
H           8.39395809678335    1.06018568164489   -0.15446195011257
H           7.73328503044239    2.64364023667662    0.25951819624126
H          10.04370557768636    3.54557234026209    0.52472711579981
H          10.71265900175033    1.96083249663892    0.11087169107879
H           9.59710859403439    0.93156899921028    2.04842426356938
H           8.78052637298223    2.44744223588662    2.43078995299540
H          11.85295197922077    2.28468491568869    2.40962268131779
H          11.72242626805141    3.10236672282567    4.65782690339873
H           8.79475145577645    3.59923485146938    4.26437075324492
H           9.71833096093196    3.70760787428374    5.76422079244287
H           9.58127791309072    1.28063561049284    6.09691680861547
H           8.87752001281494    1.05458520051431    4.49390459582245
H           6.90133849623296    2.46536515307315    5.20276285653328
H           7.57141561677197    2.52350198256616    6.83805189961431
H           7.48531837409846    0.02005020498766    6.95167030753471
H           6.83243845976928   -0.02710692215876    5.30995325417511
H           4.85211961285871    1.32082721337501    6.08090551238604
H           5.49217668044872    1.28715592102625    7.72898417993265
H           5.40186075274143   -1.22133986371552    7.69739212269482
H           4.74370665042212   -1.16552345995963    6.05752856356972
H           3.97134728823801   -1.66543199125361   -2.00762711020251
H           2.81220371707936   -0.85673146954377   -0.95182389402801
H           4.77621019946687    0.01926940816236    0.42612246871586
H           5.83490730727692   -1.04113265033792   -0.50758158760270
H           4.48259779294495   -3.02459018953688    0.26086136847178
H           3.44279137655182   -1.93474201681690    1.18652421663214
H           5.49475639890532   -1.14916328241175    2.46092638533952
H           6.44333258305349   -2.37483391058239    1.61123252842845
H           4.91986773788752   -4.15547057185341    2.54647360975272
H           4.02982438164073   -2.90266742151479    3.42100176097006
H           6.18450811849349   -2.25654025645898    4.58852686788333
H           6.98639953760223   -3.61369883198895    3.79088055272492
H           5.36340917787556   -5.19390198766764    4.86334716278258
H           4.57197210248992   -3.82881954846790    5.65889319875237
H           6.50323380913479   -3.36724597112973    7.06159087224396
H           8.06378491621079   -5.11716547685585    7.50622113041745
H           8.61463265291700   -6.76120296049714    5.83972723278869
H           7.24150341398519   -6.32602005238816    4.81601544106615
H           5.68094341460633   -7.30774924553062    6.51614378767986
H           7.06680979123712   -7.77002937218598    7.51152006429452
H           7.92724406614621   -9.20400450439376    5.65306725343207
H           6.55175519485580   -8.73075434387091    4.64811107852755
H           4.98486229071218   -9.72592280362254    6.32615589541108
H           6.36186891061999  -10.20663029501656    7.32529924896461
H           7.22073784090302  -11.63074790376147    5.45782257275253
H           5.84699115265538  -11.14661553719889    4.45588311344440
H           4.27631381767689  -12.14446465567928    6.12778218728627
H           5.65042531721100  -12.63062401655610    7.12813782878102
H          -0.48870354762937   -0.59457559154713   -2.39421426316944
H          -0.18163225202184   -1.05666430437166   -0.72294688277488
H          -1.70405215937629   -2.96843477042288   -0.91083702363018
H          -1.79359369031562   -2.78018607686715   -2.66461136265124
H          -2.72086107003632   -0.40804083920943   -2.23004056392669
H          -2.96881448577688   -0.91052461464909   -0.55608707115431
H          -4.47857926340189   -2.72776342744218   -1.29533034347816
H          -4.07875396448896   -2.40434713142423   -2.98715136346655
H          -5.03289936808629   -0.09333478068586   -2.75709298305627
H          -5.52095021093717   -0.46900399960174   -1.10105745779989
H          -7.02537876767010   -2.25485876174516   -1.90580492632310
H          -6.42157192509435   -2.06399448867605   -3.55323728123430
H          -7.25012445233580    0.33140416678992   -3.52000293985569
H          -8.00395158377535    0.00956939085846   -1.95372047016750
H          -8.64937225332767   -1.30685930065469   -4.66691286974373
H         -10.83412523322679   -1.69930550820843   -3.79465531207397
H          -9.74730247432420   -1.02902878706636   -1.02315226060858
H         -11.35496069945633   -1.61278704727829   -1.47379444520240
H         -11.76718007533951    0.63867559922889   -2.59126897699954
H         -10.25310199776607    1.21025601106905   -1.88821940724756
H         -11.13568064505438    0.79271330211304    0.39811909226379
H         -12.61962524060026    0.11208478916345   -0.28262870926200
H         -13.11601840513845    2.30150430976375   -1.38778092883588
H         -11.64988559232464    2.98955192305329   -0.67903961681564
H         -12.55264703278988    2.56685834672893    1.60916432967640
H         -14.00432256038892    1.84045526689946    0.90784164354491
H         -14.53734453485120    4.00300667639993   -0.23013927193977
H         -13.09048955391008    4.73187644273869    0.47708902131723
H          -1.04271159527847   -4.27201818280967   -6.55623180583925
H           0.52686493844396   -3.64422922074676   -6.05562374882825
H          -0.69667288653096   -1.54796049282724   -7.59980135743788
H          -1.05057193063283   -3.02593529224901   -8.47824273293323
H           1.30522276823022   -3.58016452013345   -8.68550311994606
H           1.76481909326276   -2.35209486906985   -7.50672579511828
H           0.87899964694157   -0.57152386173653   -9.09328605045808
H           0.69872424399161   -1.83553262698662  -10.31862471636679
H           3.13071639120362   -2.39913171969381  -10.07285689024545
H           3.28030576577325   -1.16801384071395   -8.81565291724140
H           2.62493074226043    0.59036451277258  -10.51507990669113
H           2.63782292142171   -0.66623466538593  -11.76216532733414
H           5.02585488417462   -1.21687888292218  -11.07373893665946
H           4.98351215154235    0.16830537798420   -9.97981776524263
H           4.54619878823412    0.38880167061956  -13.02951218579648
H           6.12601041144085    2.17874136781975  -12.93832255954591
H           5.87167965418860    2.20016285750380   -9.95594512856772
H           6.99110627986515    3.12474753164366  -10.96204295055522
H           8.47875225501576    1.13150191671825  -11.14539169336268
H           7.32574396222210    0.18008085432785  -10.20471526411035
H           7.57161376129212    1.97113856649240   -8.35202179444595
H           8.96659696204410    2.57418090742031   -9.25054673833766
H          10.02802869839813    0.29654629400865   -9.07643625131074
H           8.61113207955949   -0.27637694351810   -8.18642806547150
H           9.04501877345952    1.54452810296976   -6.46124962069398
H          10.55170291526950    1.91806293655834   -7.30572755698609
H          11.33885763533643   -0.42968701666113   -6.92468171350979
H           9.82868173290049   -0.79351936916130   -6.07993489824635
H           1.30546123296392    4.12791166066433   -1.59889879629383
H           2.64157598734968    3.16664292324109   -2.25258317173224
H           3.02489824592320    2.33587002554661    0.18020728463762
H           1.98501628871555    3.67039895573484    0.68639793062336
H           3.52769804289939    5.29809358666773   -0.40088983962789
H           4.50838087431271    3.96385671430452   -1.02515186296136
H           5.02255340615848    3.23934496378119    1.30820458675844
H           4.06770807581910    4.58874887380676    1.93874376633681
H           5.58530987735030    6.19388991172905    0.73494896881061
H           6.55046319596475    4.82922865180810    0.16170053899180
H           7.06779279558411    4.20438976018876    2.53226961728678
H           6.09987799603289    5.57145931196964    3.09963878214114
H           7.59522656472011    7.12667021059062    1.80313232717116
H           8.58921501197642    5.74898660336210    1.32504538201867
H           8.09672059505959    6.48499695627293    4.28142672531500
H          10.47552099192389    6.40764730541697    4.51387774854977
H          10.64169621024950    5.18297440135774    1.78186820571511
H          11.97337956823915    5.69948142879899    2.81486210931729
H          11.79607692815706    7.99127237515319    2.06167902347003
H          10.20514014663233    7.71122232356726    1.34822217255739
H          11.22275988493623    6.11952336161769   -0.29168702368339
H          12.82575603070908    6.47535031947829    0.36389508791368
H          12.63184016540607    8.83392214368251   -0.32238098646526
H          10.95193731994816    8.58881324504860   -0.81739118018051
H          11.67763505158271    6.95354702714253   -2.54208114890522
H          13.36470090703114    7.17100641313046   -2.05898038566393
H          13.24478298977304    9.57705918440042   -2.70467914259150
H          11.54510413291723    9.37973930207031   -3.15039656360388
H          -5.40274092499720    2.28813159479334   -4.50854570754019
H          -5.41749915812513    3.45071519298937   -5.82799519509645
H          -6.91353283281941    4.94881959604072   -4.44856283419832
H          -6.89453278545761    3.74221136672841   -3.15922491346151
H          -7.83006097523517    2.04544188904547   -4.80292669898400
H          -7.96282619605397    3.32987099335440   -6.00322093851277
H          -9.52838868243224    4.58056628132562   -4.53717507774866
H          -9.34611648906896    3.36039003068323   -3.26953222467520
H         -10.29690089039530    1.62416175449281   -4.74925745632887
H         -10.42431586708827    2.78404179497382   -6.07679987413602
H         -12.04911331089270    4.13842390693437   -4.78681412382624
H         -11.86454974337079    3.07154722627671   -3.39013799356392
H         -12.67470180912152    1.14237639653703   -4.78925632682247
H         -12.93721570396434    2.25528847102196   -6.13451587692831
H         -14.61433907680806    3.54778356291631   -4.75485622592088
H         -16.07640808816888    2.11782491643323   -3.52208624922192
H         -15.47602240918704    0.01355385446316   -2.62155539827556
H         -13.77861394420261    0.26792432666525   -3.02306649111801
H         -14.45306074678230   -0.20892853769491   -5.48913162245357
H         -15.97140349411851   -0.82597800568406   -4.83471824725297
H         -14.74241804369935   -2.49054232046015   -3.47022378294902
H         -13.19858768488536   -1.77714873127066   -3.95037852827106
H         -13.71240631102642   -2.34338171087906   -6.35134872484812
H         -15.18093620415524   -3.17061744972807   -5.81789402975993
H         -13.81428778117744   -4.73070713533706   -4.43682123561590
H         -12.34234056744161   -3.86721317643066   -4.89925128608406
H         -12.75983342157493   -4.43862453248167   -7.29828828205504
H         -14.22048729092862   -5.31943722873720   -6.83391929714534
H           1.07586776746206    3.48807976776917   -6.44722070530581
H           0.35964364168156    4.45807538193998   -7.73828211095822
H           1.95077617426384    3.40669486294626   -9.37836888955388
H           2.64091949517928    2.43731218741665   -8.07114235672847
H           3.26704661251073    4.54115929903775   -6.85245358675501
H           2.62735880108536    5.50133223273600   -8.19285096446177
H           4.29868683237592    4.46430039789650   -9.73378993292913
H           4.89797923043319    3.46325052905545   -8.40253495202737
H           5.48469723105812    5.54597693726375   -7.12642459130914
H           4.99648886622871    6.52112062692863   -8.52182828293024
H           6.72725703476181    5.35678632985254   -9.91777063094858
H           7.16119311226445    4.36032853160506   -8.52278761792020
H           7.72205557204066    6.50879479150551   -7.26512966510272
H           7.52239584014700    7.37993066046351   -8.79376564535601
H           9.42777183730318    6.23921919490627   -9.80528014528916
H          11.00736530164346    5.08235619584004   -8.43903156871313
H           9.23580411405661    4.05719674762389   -6.52572293179358
H           9.28969937967320    5.74734747736342   -6.03666987541139
H          11.79634175890483    5.63500596863934   -5.94987136319632
H          11.72559324991023    3.92718281763684   -6.39873335069920
H          10.42480268825401    3.42950663482258   -4.33090596729637
H          10.46967780439967    5.13799485401124   -3.88177339796737
H          12.94708072067230    5.07649421210653   -3.78839196848537
H          12.94837647224877    3.38432223492776   -4.29331665813896
H          11.81471530181367    2.69572714644226   -2.23830299827452
H          11.55204665363942    4.37662131629629   -1.76005291498819
H          14.01008532420954    4.73120799589218   -1.59592244448781
H          14.29560168795986    3.05737509076143   -2.08803732440098
H          -4.83348635457979   -2.18778721965665   -5.32421970340304
H          -4.48465884570433   -1.89814893186041   -7.02245538559853
H          -6.75602266813490   -2.52073028377748   -7.67567135514708
H          -7.32274015319866   -2.42200089559433   -6.00865294949844
H          -5.84583977125686   -4.35252253298134   -5.39333858387096
H          -5.35721561885306   -4.50794489758483   -7.08536871970580
H          -7.70069550886746   -4.96055370250307   -7.75208149336497
H          -8.25209927710646   -4.67167175179914   -6.09769393334831
H          -6.87375756994224   -6.59619248727127   -5.29774019410008
H          -6.34497935184134   -6.90918740742711   -6.95567918019908
H          -8.68479389566370   -7.35006179237206   -7.65004147534647
H          -9.26482831535444   -6.92296014574168   -6.03589938167135
H          -7.97275581814174   -8.81454260030052   -5.05571069884254
H          -7.38049649029544   -9.24903951784863   -6.66303721960373
H          -9.48470625208667  -10.13456087708176   -7.34373851100861
H         -11.33460442674370  -10.38577738417262   -5.85839202393064
H         -11.63592905426424   -8.68709153910972   -4.11388465601697
H          -9.90533517585030   -8.33564431167548   -4.05327319493483
H          -9.47772784856899  -10.64658659547404   -3.18756199025639
H         -11.21273697917162  -10.98366441344254   -3.23974394446126
H         -11.62386028115909   -9.11393001767752   -1.62784824384495
H          -9.88870944953973   -8.77951496216599   -1.57387680670653
H          -9.47195658858546  -11.08130695204401   -0.68897955053631
H         -11.20683967113586  -11.41701183502639   -0.74425030422394
H         -11.61952681433479   -9.54446386819280    0.86279401811344
H          -9.88417282619073   -9.21173887789098    0.91980603108136
H          -9.47174980556475  -11.51405848646403    1.80607861665404
H         -11.20690202143382  -11.84741244336900    1.74797582434637
H         -11.62006858465029   -9.97586808831540    3.35494415577652
H          -9.88447903064046   -9.64368927660846    3.41377945750655
H          -9.47563788608541  -11.93647565021610    4.33061869407487
H         -11.21361682215698  -12.26894001559717    4.27173326856482
H         -10.58788806751675  -11.01825538212565    5.35799562622661
H           6.50913216884784  -14.05198150312261    5.25830503343599
H           5.13563192019854  -13.56488736119204    4.25715424470132
H           3.56364305654181  -14.59249077858378    5.91140737022245
H           4.93886395761426  -15.08027400176639    6.91409376645402
H           4.72692223543582  -15.78001929516611    5.30127209611274
H           3.41442804987219    0.03687760715668    8.53698616914138
H           2.76565264812527    0.11348806319714    6.89361079414291
H           3.30279268897770   -2.46238388915753    8.46582175252824
H           2.65917400027402   -2.38666261168673    6.81854517451374
H           1.71314542785479   -1.74004394506895    8.16884269075601
H          10.35392475683305    0.99463376693514   -4.39931008456189
H          11.87996146630849    1.31528706291826   -5.23310867831829
H          12.62733010178967   -1.02586330556712   -4.76110075608744
H          11.09785460094425   -1.34390980547779   -3.92719680664611
H          12.23409544815527   -0.15521233735280   -3.26975575156379
H         -13.99453746366902    4.30389263354353    2.76906555761025
H         -15.44055870129756    3.57202032486687    2.06220940856959
H         -15.99577264404436    5.74260767375927    0.94699991491949
H         -14.54798135426565    6.47575378484022    1.65470004077225
H         -15.86780966003802    5.93257603150452    2.70296435625148
H         -12.85102025618247   -6.87329025632179   -5.44342410551872
H         -11.38839195941770   -5.97841838314058   -5.87360114204710
H         -11.73731382601666   -6.55352655494109   -8.28152005075370
H         -13.20671025483726   -7.44682638589865   -7.85704405342607
H         -11.62968731123478   -8.00948740492037   -7.28015402387307
H          12.19051804956753    7.69083879827267   -4.87506318899519
H          13.89090685644211    7.88584508515437   -4.43341998284592
H          13.78691180352493   10.29547908455377   -5.10983094876875
H          12.08371554356922   10.09544180986729   -5.55051671829684
H          13.33821874594446    9.22641629393336   -6.44853154202589
H          13.10396083581759    2.23596682104323   -0.07255851530725
H          12.72506307777076    3.89649576047732    0.40229152789324
H          15.15876646121072    4.39462392347996    0.63982784210199
H          15.54872262074418    2.73501305859243    0.16049584663644
H          14.67432129930332    3.03875856083537    1.67058584904230
